25
	Energy:       5.3025197
C          1.30140        1.89658       -0.81058
C          1.91178        0.73525       -0.32928
C          1.16736       -0.21363        0.38109
C         -0.19065        0.00190        0.61186
C         -0.80400        1.16061        0.14589
C         -0.06160        2.10395       -0.57282
S         -1.11236       -1.17890        1.44391
H          2.95904        0.52950       -0.52464
H          1.64425       -1.12501        0.72963
H         -1.86565        1.32633        0.31446
H         -0.57039        2.97491       -0.96659
S          2.21244        3.00523       -1.90105
C          2.53106        4.30297       -0.69712
C          1.53847        5.23624       -0.38442
C          3.82070        4.47675       -0.18503
C          1.82781        6.32134        0.44645
C          4.10963        5.56877        0.63794
C          3.11293        6.48816        0.95401
H          0.53825        5.13423       -0.79504
H          4.61360        3.77797       -0.43613
H          1.05494        7.04396        0.68975
H          5.11345        5.71326        1.02510
H          3.37875        2.39949       -1.90652
H         -0.16700       -1.83180        1.39415
H         -6.84387      -11.39634        6.34493
